!----------------------------------------------------------------------------------
! Users should add all user specific namelist changes below in the form of 
! namelist_var = new_namelist_value 
!
! EXCEPTIONS: 
! Set use_cndv           by the compset you use and the CLM_BLDNML_OPTS -dynamic_vegetation setting
! Set use_vichydro       by the compset you use and the CLM_BLDNML_OPTS -vichydro           setting
! Set use_cn             by the compset you use and CLM_BLDNML_OPTS -bgc  setting
! Set use_crop           by the compset you use and CLM_BLDNML_OPTS -crop setting
! Set spinup_state       by the CLM_BLDNML_OPTS -bgc_spinup      setting
! Set irrigate           by the CLM_BLDNML_OPTS -irrig .true.    setting
! Set co2_ppmv           with CCSM_CO2_PPMV                      option
! Set dtime              with L_NCPL                             option
! Set fatmlndfrc         with LND_DOMAIN_PATH/LND_DOMAIN_FILE    options
! Set finidat            with RUN_REFCASE/RUN_REFDATE/RUN_REFTOD options for hybrid or branch cases
!                        (includes $inst_string for multi-ensemble cases)
!                        or with CLM_FORCE_COLDSTART to do a cold start
!                        or set it with an explicit filename here.
! Set maxpatch_glcmec    with GLC_NEC                            option
! Set glc_do_dynglacier  with GLC_TWO_WAY_COUPLING               env variable
!----------------------------------------------------------------------------------

hist_nhtfrq = 0

hist_mfilt  = 1
hist_fexcl1 = 'ACTUAL_IMMOB','AGNPP','ALT','ALTMAX','AR','ATM_TOPO','BAF_CROP','BAF_PEATF','BCDEP','BGNPP','BTRAN2','BTRANMN','CH4PROD','CH4_SURF_AERE_SAT','CH4_SURF_AERE_UNSAT','CH4_SURF_DIFF_SAT','CH4_SURF_DIFF_UNSAT','CH4_SURF_EBUL_SAT','CH4_SURF_EBUL_UNSAT','COL_FIRE_CLOSS','COL_FIRE_NLOSS','CONC_O2_SAT','CONC_O2_UNSAT','COST_NACTIVE','COST_NFIX','COST_NRETRANS','CPHASE','CPOOL','CROPPROD1C','CROPPROD1C_LOSS','CROPPROD1N','CROPPROD1N_LOSS','CROPSEEDC_DEFICIT','CWDC','CWDC_LOSS','CWDC_vr','CWDN','CWDN_vr','DEADCROOTC','DEADCROOTN','DEADSTEMC','DEADSTEMN','DENIT','DISPVEGC','DISPVEGN','DSL','DSTDEP','DSTFLXT','DWT_CONV_CFLUX','DWT_CONV_CFLUX_DRIBBLED','DWT_CONV_NFLUX','DWT_CROPPROD1C_GAIN','DWT_CROPPROD1N_GAIN','DWT_SEEDN_TO_DEADSTEM','DWT_SEEDN_TO_LEAF','DWT_SLASH_CFLUX','DWT_WOODPRODC_GAIN','DWT_WOODPRODN_GAIN','EFLXBUILD','EFLX_DYNBAL','EFLX_GRND_LAKE','EFLX_LH_TOT','EFLX_LH_TOT_R','ELAI','ER','ERRH2O','ERRH2OSNO','ERRSEB','ERRSOI','ERRSOL','ESAI','FAREA_BURNED','FCEV','FCH4','FCH4TOCO2','FCH4_DFSAT','FCOV','FCTR','FERT_TO_SMINN','FFIX_TO_SMINN','FGEV','FGR','FGR12','FH2OSFC','FINUNDATED','FIRA','FIRA_R','FIRE','FIRE_R','FLDS','FPI','FPSN','FREE_RETRANSN_TO_NPOOL','FROOTC','FROOTC_ALLOC','FROOTC_LOSS','FROOTN','FSA','FSAT','FSDS','FSDSND','FSDSNDLN','FSDSNI','FSDSVD','FSDSVDLN','FSDSVI','FSDSVILN','FSH','FSH_G','FSH_PRECIP_CONVERSION','FSH_R','FSH_RUNOFF_ICE_TO_LIQ','FSH_TO_COUPLER','FSH_V','FSM','FSNO','FSNO_EFF','FSR','FSRND','FSRNDLN','FSRNI','FSRVD','FSRVDLN','FSRVI','FUELC','F_DENIT','F_N2O_DENIT','F_N2O_NIT','F_NIT','GPP','GR','GRAINC','GRAINC_TO_FOOD','GRAINC_TO_SEED','GRAINN','GROSS_NMIN','GSSHA','GSSHALN','GSSUN','GSSUNLN','H2OCAN','H2OSFC','H2OSNO','H2OSNO_TOP','H2OSOI','HEAT_CONTENT1','HEAT_FROM_AC','HIA','HIA_R','HIA_U','HR','HR_vr','HTOP','HUMIDEX','HUMIDEX_R','HUMIDEX_U','ICE_CONTENT1','JMX25T','Jmx25Z','LAISHA','LAISUN','LAKEICEFRAC_SURF','LAKEICETHICK','LAND_USE_FLUX','LEAFC','LEAFCN','LEAFC_ALLOC','LEAFC_CHANGE','LEAFC_LOSS','LEAFC_TO_LITTER_FUN','LEAFN','LEAFN_TO_LITTER','LEAF_MR','LFC2','LIQCAN','LIQUID_CONTENT1','LITFALL','LITFIRE','LITR1C','LITR1C_TO_SOIL1C','LITR1C_vr','LITR1N','LITR1N_vr','LITR2C','LITR2C_TO_SOIL1C','LITR2C_vr','LITR2N','LITR2N_vr','LITR3C','LITR3C_TO_SOIL2C','LITR3C_vr','LITR3N','LITR3N_vr','LITTERC_HR','LITTERC_LOSS','LIVECROOTC','LIVECROOTN','LIVESTEMC','LIVESTEMN','LNC','MEG_carene_3','MEG_isoprene','MEG_limonene','MEG_myrcene','MEG_ocimene_t_b','MEG_pinene_a','MEG_pinene_b','MEG_sabinene','MR','M_DEADCROOTC_TO_LITTER','M_DEADSTEMC_TO_LITTER','M_FROOTC_TO_LITTER','M_LEAFC_TO_LITTER','M_LIVECROOTC_TO_LITTER','M_LIVESTEMC_TO_LITTER','NACTIVE','NACTIVE_NH4','NACTIVE_NO3','NAM','NAM_NH4','NAM_NO3','NBP','NDEPLOY','NDEP_TO_SMINN','NECM','NECM_NH4','NECM_NO3','NEE','NEM','NEP','NET_NMIN','NFERTILIZATION','NFIRE','NFIX','NFIX_TO_SMINN','NNONMYC','NNONMYC_NH4','NNONMYC_NO3','NPASSIVE','NPOOL','NPP','NPP_GROWTH','NPP_NACTIVE','NPP_NACTIVE_NH4','NPP_NACTIVE_NO3','NPP_NAM','NPP_NAM_NH4','NPP_NAM_NO3','NPP_NECM','NPP_NECM_NH4','NPP_NECM_NO3','NPP_NFIX','NPP_NNONMYC','NPP_NNONMYC_NH4','NPP_NNONMYC_NO3','NPP_NRETRANS','NPP_NUPTAKE','NRETRANS','NRETRANS_REG','NRETRANS_SEASON','NRETRANS_STRESS','NUPTAKE','NUPTAKE_NPP_FRACTION','OCDEP','O_SCALAR','PARVEGLN','PBOT','PCH4','PCO2','PCT_CFT','PCT_GLC_MEC','PCT_LANDUNIT','PCT_NAT_PFT','PFT_FIRE_CLOSS','PFT_FIRE_NLOSS','PLANT_NDEMAND','POTENTIAL_IMMOB','POT_F_DENIT','POT_F_NIT','PSNSHA','PSNSHADE_TO_CPOOL','PSNSUN','PSNSUN_TO_CPOOL','Q2M','QBOT','QCHARGE','QDRAI','QDRAI_PERCH','QDRAI_XS','QDRIP','QFLOOD','QFLX_DEW_GRND','QFLX_DEW_SNOW','QFLX_EVAP_TOT','QFLX_ICE_DYNBAL','QFLX_LIQ_DYNBAL','QFLX_SNOW_DRAIN','QFLX_SNOW_DRAIN_ICE','QFLX_SUB_SNOW','QH2OSFC','QICE','QICE_FRZ','QICE_MELT','QINFL','QINTR','QIRRIG','QOVER','QRGWL','QRUNOFF','QRUNOFF_ICE','QRUNOFF_ICE_TO_COUPLER','QRUNOFF_TO_COUPLER','QSNOCPLIQ','QSNOEVAP','QSNOFRZ','QSNOFRZ_ICE','QSNOMELT','QSNOMELT_ICE','QSNO_TEMPUNLOAD','QSNO_WINDUNLOAD','QSNWCPICE','QSOIL_ICE','QVEGE','QVEGT','RAIN','RAIN_FROM_ATM','RETRANSN','RETRANSN_TO_NPOOL','RH2M','RR','RSSHA','RSSUN','SABG','SABG_PEN','SABV','SEEDC','SEEDN','SLASH_HARVESTC','SMINN','SMINN_TO_NPOOL','SMINN_TO_PLANT','SMINN_TO_PLANT_FUN','SMINN_vr','SMIN_NH4','SMIN_NH4_vr','SMIN_NO3','SMIN_NO3_LEACHED','SMIN_NO3_RUNOFF','SMIN_NO3_vr','SMP','SNOBCMCL','SNOBCMSL','SNOCAN','SNODSTMCL','SNODSTMSL','SNOFSRND','SNOFSRNI','SNOFSRVD','SNOFSRVI','SNOINTABS','SNOOCMCL','SNOOCMSL','SNOTXMASS','SNOUNLOAD','SNOW','SNOWDP','SNOWICE','SNOWLIQ','SNOW_FROM_ATM','SNOW_PERSISTENCE','SNOW_SINKS','SNOW_SOURCES','SOIL1C','SOIL1C_vr','SOIL1N','SOIL1N_vr','SOIL2C','SOIL2C_vr','SOIL2N','SOIL2N_vr','SOIL3C','SOIL3C_vr','SOIL3N','SOIL3N_vr','SOILC_CHANGE','SOILC_HR','SOILRESIS','SOMC_FIRE','SOM_C_LEACHED','SR','STORVEGC','STORVEGN','SUPPLEMENT_TO_SMINN','SWBGT','SWBGT_R','SWBGT_U','TAUX','TAUY','TBOT','TBUILD','TG','TH2OSFC','THBOT','TKE1','TLAI','TLAKE','TOTCOLC','TOTCOLCH4','TOTCOLN','TOTECOSYSC','TOTECOSYSN','TOTLITC','TOTLITC_1m','TOTLITN','TOTLITN_1m','TOTPFTC','TOTPFTN','TOTSOMC','TOTSOMC_1m','TOTSOMN','TOTSOMN_1m','TOTVEGC','TOTVEGN','TOT_WOODPRODC','TOT_WOODPRODC_LOSS','TOT_WOODPRODN','TOT_WOODPRODN_LOSS','TPU25T','TSA','TSAI','TSL','TV','TWS','T_SCALAR','U10','U10_DUST','URBAN_AC','URBAN_HEAT','VCMX25T','VEGWP','VOLR','VOLRMCH','Vcmx25Z','WA','WASTEHEAT','WBT','WBT_R','WBT_U','WIND','WOODC','WOODC_ALLOC','WOODC_LOSS','WOOD_HARVESTC','WOOD_HARVESTN','WTGQ','W_SCALAR','XSMRPOOL','XSMRPOOL_RECOVER','ZBOT','ZWT','ZWT_CH4_UNSAT','ZWT_PERCH'
